<?xml version="1.0" encoding="UTF-8"?>

<!-- generated on 2024-10-02 22:44:27 by Eclipse SUMO netedit Version 1.20.0
-->

<routes xmlns:xsi="http://www.w3.org/2001/XMLSchema-instance" xsi:noNamespaceSchemaLocation="http://sumo.dlr.de/xsd/routes_file.xsd">
    <!-- Vehicles, persons and containers (sorted by depart) -->
    <flow id="f_0" begin="0.00" from="North" to="end_east2" end="3600.00" vehsPerHour="500"/>
    <flow id="f_1" begin="0.00" from="West" to="end_east2" end="3600.00" vehsPerHour="500"/>
    <flow id="f_10" begin="0.00" from="lower_west" to="end_east2" end="3600.00" vehsPerHour="500"/>
    <flow id="f_11" begin="0.00" from="North" to="end_south1" end="3600.00" vehsPerHour="500"/>
    <flow id="f_12" begin="0.00" from="West" to="end_south1" end="3600.00" vehsPerHour="500"/>
    <flow id="f_13" begin="0.00" from="lower_west" to="end_east1" end="3600.00" vehsPerHour="500"/>
    <flow id="f_14" begin="0.00" from="lower_west" to="North2" end="3600.00" vehsPerHour="500"/>
    <flow id="f_2" begin="0.00" from="North" to="North2" end="3600.00" vehsPerHour="500"/>
    <flow id="f_3" begin="0.00" from="West" to="North2" end="3600.00" vehsPerHour="500"/>
    <flow id="f_4" begin="0.00" from="North" to="end_east1" end="3600.00" vehsPerHour="500"/>
    <flow id="f_5" begin="0.00" from="West" to="end_east1" end="3600.00" vehsPerHour="500"/>
    <flow id="f_6" begin="0.00" from="West" to="end_south1" end="3600.00" vehsPerHour="500"/>
    <flow id="f_7" begin="0.00" from="West" to="end_south2" end="3600.00" vehsPerHour="500"/>
    <flow id="f_8" begin="0.00" from="North" to="end_south2" end="3600.00" vehsPerHour="500"/>
    <flow id="f_9" begin="0.00" from="lower_west" to="end_south1" end="3600.00" vehsPerHour="500"/>
</routes>
